
Note: No compatibility mode selected!


Circuit: test opamp tran

Doing analysis at TEMP = 27.000000 and TNOM = 27.000000

Using SPARSE 1.3 as Direct Linear Solver
Note: Starting dynamic gmin stepping
Note: Dynamic gmin stepping completed

Initial Transient Solution
--------------------------

Node                                   Voltage
----                                   -------
vdd                                        1.8
vss                                          0
ib                                    0.745965
gnda                               1.15452e-05
visr                                       0.3
vout3                                 0.299934
x1.net050                             0.732648
x1.net049                             0.694992
x1.net043                             0.549484
x1.voutn                              0.816827
x1.net063                            0.0891127
x1.net31                                1.4072
x1.dm_2                              0.0896156
x1.vb3                                0.553565
x1.dm_1                               0.502752
x1.vb4                                0.502752
x1.net54                             0.0479982
x1.net56                             0.0479982
x1.xc0.a                              0.299934
x1.xc0.b1                             0.299934
x1.xc1.a                              0.299934
x1.xc1.b1                             0.299934
vvisr#branch                                 0
v2#branch                          0.000257433
v1#branch                         -0.000268978


No. of Data Rows : 474
t_rise_edge         =  1.507499e-06
t_rise = 5.074990e-07
sr_rise = 1.970447e+05
t_fall_edge         =  2.015787e-04
t_fall = 5.787000e-07
sr_fall = 1.728011e+05

Warning: command 'plot' is not available during batch simulation, ignored!
    You may use Gnuplot instead.

ASCII raw file "tran.dat"
Doing analysis at TEMP = 27.000000 and TNOM = 27.000000

Using SPARSE 1.3 as Direct Linear Solver
Note: Starting dynamic gmin stepping
Note: Dynamic gmin stepping completed

No. of Data Rows : 1
ASCII raw file "AMP_NMCF_op"
Note: Simulation executed from .control section 
